glm_generation_Austin/IEEE_123_homes_1min.glm
module residential {
	implicit_enduses NONE;
}

module climate;

module tape;

module generators;

class player {
	double value;
}

class house {
	double k;
	double T_max;
	double T_min;
}

class battery {
	char32 charging_type;
	double k;
}

object climate {
	name tmy_file;
	tmyfile 722540TYA.tmy3;
	interpolate LINEAR;
}

object triplex_line_conductor {
	name "c1/0 AA triplex";
	resistance 0.97;
	geometric_mean_radius 0.0111;
}

object triplex_line_configuration {
	name triplex_line_config;
	conductor_1 "c1/0 AA triplex";
	conductor_2 "c1/0 AA triplex";
	conductor_N "c1/0 AA triplex";
	insulation_thickness 0.08;
	diameter 0.368;
}

object transformer_configuration {
	name house_transformer;
	connect_type SINGLE_PHASE_CENTER_TAPPED;
	install_type PADMOUNT;
	primary_voltage 2401.7771 V;
	secondary_voltage 124 V;
	power_rating 250;
	impedance 0.015+0.0675j;
}

object player {
	name player_0;
	file glm_generation_Austin/players_Austin/ps_101_2016.player;
}

object player {
	name player_1;
	file glm_generation_Austin/players_Austin/ps_1086_2016.player;
}

object player {
	name player_2;
	file glm_generation_Austin/players_Austin/ps_1103_2016.player;
}

object player {
	name player_3;
	file glm_generation_Austin/players_Austin/ps_114_2016.player;
}

object player {
	name player_4;
	file glm_generation_Austin/players_Austin/ps_115_2016.player;
}

object player {
	name player_5;
	file glm_generation_Austin/players_Austin/ps_1169_2016.player;
}

object player {
	name player_6;
	file glm_generation_Austin/players_Austin/ps_1185_2016.player;
}

object player {
	name player_7;
	file glm_generation_Austin/players_Austin/ps_1192_2016.player;
}

object player {
	name player_8;
	file glm_generation_Austin/players_Austin/ps_1202_2016.player;
}

object player {
	name player_9;
	file glm_generation_Austin/players_Austin/ps_1283_2016.player;
}

object player {
	name player_10;
	file glm_generation_Austin/players_Austin/ps_1310_2016.player;
}

object player {
	name player_11;
	file glm_generation_Austin/players_Austin/ps_1334_2016.player;
}

object player {
	name player_12;
	file glm_generation_Austin/players_Austin/ps_1415_2016.player;
}

object player {
	name player_13;
	file glm_generation_Austin/players_Austin/ps_1463_2016.player;
}

object player {
	name player_14;
	file glm_generation_Austin/players_Austin/ps_1500_2016.player;
}

object player {
	name player_15;
	file glm_generation_Austin/players_Austin/ps_1507_2016.player;
}

object player {
	name player_16;
	file glm_generation_Austin/players_Austin/ps_1551_2016.player;
}

object player {
	name player_17;
	file glm_generation_Austin/players_Austin/ps_1642_2016.player;
}

object player {
	name player_18;
	file glm_generation_Austin/players_Austin/ps_1714_2016.player;
}

object player {
	name player_19;
	file glm_generation_Austin/players_Austin/ps_1718_2016.player;
}

object player {
	name player_20;
	file glm_generation_Austin/players_Austin/ps_171_2016.player;
}

object player {
	name player_21;
	file glm_generation_Austin/players_Austin/ps_1792_2016.player;
}

object player {
	name player_22;
	file glm_generation_Austin/players_Austin/ps_1796_2016.player;
}

object player {
	name player_23;
	file glm_generation_Austin/players_Austin/ps_1801_2016.player;
}

object player {
	name player_24;
	file glm_generation_Austin/players_Austin/ps_187_2016.player;
}

object player {
	name player_25;
	file glm_generation_Austin/players_Austin/ps_1947_2016.player;
}

object player {
	name player_26;
	file glm_generation_Austin/players_Austin/ps_2004_2016.player;
}

object player {
	name player_27;
	file glm_generation_Austin/players_Austin/ps_2018_2016.player;
}

object player {
	name player_28;
	file glm_generation_Austin/players_Austin/ps_2034_2016.player;
}

object player {
	name player_29;
	file glm_generation_Austin/players_Austin/ps_2072_2016.player;
}

object player {
	name player_30;
	file glm_generation_Austin/players_Austin/ps_2094_2016.player;
}

object player {
	name player_31;
	file glm_generation_Austin/players_Austin/ps_2129_2016.player;
}

object player {
	name player_32;
	file glm_generation_Austin/players_Austin/ps_2158_2016.player;
}

object player {
	name player_33;
	file glm_generation_Austin/players_Austin/ps_2199_2016.player;
}

object player {
	name player_34;
	file glm_generation_Austin/players_Austin/ps_2233_2016.player;
}

object player {
	name player_35;
	file glm_generation_Austin/players_Austin/ps_2335_2016.player;
}

object player {
	name player_36;
	file glm_generation_Austin/players_Austin/ps_2337_2016.player;
}

object player {
	name player_37;
	file glm_generation_Austin/players_Austin/ps_2361_2016.player;
}

object player {
	name player_38;
	file glm_generation_Austin/players_Austin/ps_2365_2016.player;
}

object player {
	name player_39;
	file glm_generation_Austin/players_Austin/ps_2378_2016.player;
}

object player {
	name player_40;
	file glm_generation_Austin/players_Austin/ps_2461_2016.player;
}

object player {
	name player_41;
	file glm_generation_Austin/players_Austin/ps_2470_2016.player;
}

object player {
	name player_42;
	file glm_generation_Austin/players_Austin/ps_2472_2016.player;
}

object player {
	name player_43;
	file glm_generation_Austin/players_Austin/ps_252_2016.player;
}

object player {
	name player_44;
	file glm_generation_Austin/players_Austin/ps_2557_2016.player;
}

object player {
	name player_45;
	file glm_generation_Austin/players_Austin/ps_2638_2016.player;
}

object player {
	name player_46;
	file glm_generation_Austin/players_Austin/ps_2787_2016.player;
}

object player {
	name player_47;
	file glm_generation_Austin/players_Austin/ps_2814_2016.player;
}

object player {
	name player_48;
	file glm_generation_Austin/players_Austin/ps_2818_2016.player;
}

object player {
	name player_49;
	file glm_generation_Austin/players_Austin/ps_2859_2016.player;
}

object player {
	name player_50;
	file glm_generation_Austin/players_Austin/ps_2925_2016.player;
}

object player {
	name player_51;
	file glm_generation_Austin/players_Austin/ps_2945_2016.player;
}

object player {
	name player_52;
	file glm_generation_Austin/players_Austin/ps_2953_2016.player;
}

object player {
	name player_53;
	file glm_generation_Austin/players_Austin/ps_2965_2016.player;
}

object player {
	name player_54;
	file glm_generation_Austin/players_Austin/ps_2980_2016.player;
}

object player {
	name player_55;
	file glm_generation_Austin/players_Austin/ps_2986_2016.player;
}

object player {
	name player_56;
	file glm_generation_Austin/players_Austin/ps_3009_2016.player;
}

object player {
	name player_57;
	file glm_generation_Austin/players_Austin/ps_3039_2016.player;
}

object player {
	name player_58;
	file glm_generation_Austin/players_Austin/ps_3044_2016.player;
}

object player {
	name player_59;
	file glm_generation_Austin/players_Austin/ps_3134_2016.player;
}

object player {
	name player_60;
	file glm_generation_Austin/players_Austin/ps_3268_2016.player;
}

object player {
	name player_61;
	file glm_generation_Austin/players_Austin/ps_3273_2016.player;
}

object player {
	name player_62;
	file glm_generation_Austin/players_Austin/ps_3310_2016.player;
}

object player {
	name player_63;
	file glm_generation_Austin/players_Austin/ps_3392_2016.player;
}

object player {
	name player_64;
	file glm_generation_Austin/players_Austin/ps_3413_2016.player;
}

object player {
	name player_65;
	file glm_generation_Austin/players_Austin/ps_3456_2016.player;
}

object player {
	name player_66;
	file glm_generation_Austin/players_Austin/ps_3482_2016.player;
}

object player {
	name player_67;
	file glm_generation_Austin/players_Austin/ps_3500_2016.player;
}

object player {
	name player_68;
	file glm_generation_Austin/players_Austin/ps_3506_2016.player;
}

object player {
	name player_69;
	file glm_generation_Austin/players_Austin/ps_3527_2016.player;
}

object player {
	name player_70;
	file glm_generation_Austin/players_Austin/ps_3538_2016.player;
}

object player {
	name player_71;
	file glm_generation_Austin/players_Austin/ps_3635_2016.player;
}

object player {
	name player_72;
	file glm_generation_Austin/players_Austin/ps_3649_2016.player;
}

object player {
	name player_73;
	file glm_generation_Austin/players_Austin/ps_370_2016.player;
}

object player {
	name player_74;
	file glm_generation_Austin/players_Austin/ps_3719_2016.player;
}

object player {
	name player_75;
	file glm_generation_Austin/players_Austin/ps_3723_2016.player;
}

object player {
	name player_76;
	file glm_generation_Austin/players_Austin/ps_3736_2016.player;
}

object player {
	name player_77;
	file glm_generation_Austin/players_Austin/ps_3778_2016.player;
}

object player {
	name player_78;
	file glm_generation_Austin/players_Austin/ps_379_2016.player;
}

object player {
	name player_79;
	file glm_generation_Austin/players_Austin/ps_3829_2016.player;
}

object player {
	name player_80;
	file glm_generation_Austin/players_Austin/ps_3831_2016.player;
}

object player {
	name player_81;
	file glm_generation_Austin/players_Austin/ps_3849_2016.player;
}

object player {
	name player_82;
	file glm_generation_Austin/players_Austin/ps_3893_2016.player;
}

object player {
	name player_83;
	file glm_generation_Austin/players_Austin/ps_3916_2016.player;
}

object player {
	name player_84;
	file glm_generation_Austin/players_Austin/ps_3918_2016.player;
}

object player {
	name player_85;
	file glm_generation_Austin/players_Austin/ps_3935_2016.player;
}

object player {
	name player_86;
	file glm_generation_Austin/players_Austin/ps_3967_2016.player;
}

object player {
	name player_87;
	file glm_generation_Austin/players_Austin/ps_410_2016.player;
}

object player {
	name player_88;
	file glm_generation_Austin/players_Austin/ps_483_2016.player;
}

object player {
	name player_89;
	file glm_generation_Austin/players_Austin/ps_499_2016.player;
}

object player {
	name player_90;
	file glm_generation_Austin/players_Austin/ps_503_2016.player;
}

object player {
	name player_91;
	file glm_generation_Austin/players_Austin/ps_545_2016.player;
}

object player {
	name player_92;
	file glm_generation_Austin/players_Austin/ps_585_2016.player;
}

object player {
	name player_93;
	file glm_generation_Austin/players_Austin/ps_59_2016.player;
}

object player {
	name player_94;
	file glm_generation_Austin/players_Austin/ps_661_2016.player;
}

object player {
	name player_95;
	file glm_generation_Austin/players_Austin/ps_668_2016.player;
}

object player {
	name player_96;
	file glm_generation_Austin/players_Austin/ps_744_2016.player;
}

object player {
	name player_97;
	file glm_generation_Austin/players_Austin/ps_77_2016.player;
}

object player {
	name player_98;
	file glm_generation_Austin/players_Austin/ps_781_2016.player;
}

object player {
	name player_99;
	file glm_generation_Austin/players_Austin/ps_796_2016.player;
}

object player {
	name player_100;
	file glm_generation_Austin/players_Austin/ps_86_2016.player;
}

object player {
	name player_101;
	file glm_generation_Austin/players_Austin/ps_871_2016.player;
}

object player {
	name player_102;
	file glm_generation_Austin/players_Austin/ps_890_2016.player;
}

object player {
	name player_103;
	file glm_generation_Austin/players_Austin/ps_93_2016.player;
}

object player {
	name player_104;
	file glm_generation_Austin/players_Austin/ps_946_2016.player;
}

object player {
	name player_105;
	file glm_generation_Austin/players_Austin/ps_94_2016.player;
}

object player {
	name player_106;
	file glm_generation_Austin/players_Austin/ps_974_2016.player;
}

object player {
	name player_107;
	file glm_generation_Austin/players_Austin/ps_994_2016.player;
}

object triplex_node {
	name node_1_A;
	nominal_voltage 124.00;
	phases AS;
}

object transformer {
	name house_trans_1_A;
	phases AS;
	from meter_1;
	to node_1_A;
	configuration house_transformer;
}

object triplex_node {
	name node_2_B;
	nominal_voltage 124.00;
	phases BS;
}

object transformer {
	name house_trans_2_B;
	phases BS;
	from meter_2;
	to node_2_B;
	configuration house_transformer;
}

object triplex_node {
	name node_4_C;
	nominal_voltage 124.00;
	phases CS;
}

object transformer {
	name house_trans_4_C;
	phases CS;
	from meter_4;
	to node_4_C;
	configuration house_transformer;
}

object triplex_node {
	name node_5_C;
	nominal_voltage 124.00;
	phases CS;
}

object transformer {
	name house_trans_5_C;
	phases CS;
	from meter_5;
	to node_5_C;
	configuration house_transformer;
}

object triplex_node {
	name node_6_C;
	nominal_voltage 124.00;
	phases CS;
}

object transformer {
	name house_trans_6_C;
	phases CS;
	from meter_6;
	to node_6_C;
	configuration house_transformer;
}

object triplex_node {
	name node_7_A;
	nominal_voltage 124.00;
	phases AS;
}

object transformer {
	name house_trans_7_A;
	phases AS;
	from meter_7;
	to node_7_A;
	configuration house_transformer;
}

object triplex_node {
	name node_9_A;
	nominal_voltage 124.00;
	phases AS;
}

object transformer {
	name house_trans_9_A;
	phases AS;
	from meter_9;
	to node_9_A;
	configuration house_transformer;
}

object triplex_node {
	name node_10_A;
	nominal_voltage 124.00;
	phases AS;
}

object transformer {
	name house_trans_10_A;
	phases AS;
	from meter_10;
	to node_10_A;
	configuration house_transformer;
}

object triplex_node {
	name node_11_A;
	nominal_voltage 124.00;
	phases AS;
}

object transformer {
	name house_trans_11_A;
	phases AS;
	from meter_11;
	to node_11_A;
	configuration house_transformer;
}

object triplex_node {
	name node_12_B;
	nominal_voltage 124.00;
	phases BS;
}

object transformer {
	name house_trans_12_B;
	phases BS;
	from meter_12;
	to node_12_B;
	configuration house_transformer;
}

object triplex_node {
	name node_16_C;
	nominal_voltage 124.00;
	phases CS;
}

object transformer {
	name house_trans_16_C;
	phases CS;
	from meter_16;
	to node_16_C;
	configuration house_transformer;
}

object triplex_node {
	name node_17_C;
	nominal_voltage 124.00;
	phases CS;
}

object transformer {
	name house_trans_17_C;
	phases CS;
	from meter_17;
	to node_17_C;
	configuration house_transformer;
}

object triplex_node {
	name node_19_A;
	nominal_voltage 124.00;
	phases AS;
}

object transformer {
	name house_trans_19_A;
	phases AS;
	from meter_19;
	to node_19_A;
	configuration house_transformer;
}

object triplex_node {
	name node_20_A;
	nominal_voltage 124.00;
	phases AS;
}

object transformer {
	name house_trans_20_A;
	phases AS;
	from meter_20;
	to node_20_A;
	configuration house_transformer;
}

object triplex_node {
	name node_22_B;
	nominal_voltage 124.00;
	phases BS;
}

object transformer {
	name house_trans_22_B;
	phases BS;
	from meter_22;
	to node_22_B;
	configuration house_transformer;
}

object triplex_node {
	name node_24_C;
	nominal_voltage 124.00;
	phases CS;
}

object transformer {
	name house_trans_24_C;
	phases CS;
	from meter_24;
	to node_24_C;
	configuration house_transformer;
}

object triplex_node {
	name node_28_A;
	nominal_voltage 124.00;
	phases AS;
}

object transformer {
	name house_trans_28_A;
	phases AS;
	from meter_28;
	to node_28_A;
	configuration house_transformer;
}

object triplex_node {
	name node_29_A;
	nominal_voltage 124.00;
	phases AS;
}

object transformer {
	name house_trans_29_A;
	phases AS;
	from meter_29;
	to node_29_A;
	configuration house_transformer;
}

object triplex_node {
	name node_30_A;
	nominal_voltage 124.00;
	phases AS;
}

object transformer {
	name house_trans_30_A;
	phases AS;
	from meter_30;
	to node_30_A;
	configuration house_transformer;
}

object triplex_node {
	name node_31_C;
	nominal_voltage 124.00;
	phases CS;
}

object transformer {
	name house_trans_31_C;
	phases CS;
	from meter_31;
	to node_31_C;
	configuration house_transformer;
}

object triplex_node {
	name node_32_C;
	nominal_voltage 124.00;
	phases CS;
}

object transformer {
	name house_trans_32_C;
	phases CS;
	from meter_32;
	to node_32_C;
	configuration house_transformer;
}

object triplex_node {
	name node_33_A;
	nominal_voltage 124.00;
	phases AS;
}

object transformer {
	name house_trans_33_A;
	phases AS;
	from meter_33;
	to node_33_A;
	configuration house_transformer;
}

object triplex_node {
	name node_34_C;
	nominal_voltage 124.00;
	phases CS;
}

object transformer {
	name house_trans_34_C;
	phases CS;
	from meter_34;
	to node_34_C;
	configuration house_transformer;
}

object triplex_node {
	name node_35_A;
	nominal_voltage 124.00;
	phases AS;
}

object transformer {
	name house_trans_35_A;
	phases AS;
	from meter_35;
	to node_35_A;
	configuration house_transformer;
}

object triplex_node {
	name node_37_A;
	nominal_voltage 124.00;
	phases AS;
}

object transformer {
	name house_trans_37_A;
	phases AS;
	from meter_37;
	to node_37_A;
	configuration house_transformer;
}

object triplex_node {
	name node_38_B;
	nominal_voltage 124.00;
	phases BS;
}

object transformer {
	name house_trans_38_B;
	phases BS;
	from meter_38;
	to node_38_B;
	configuration house_transformer;
}

object triplex_node {
	name node_39_B;
	nominal_voltage 124.00;
	phases BS;
}

object transformer {
	name house_trans_39_B;
	phases BS;
	from meter_39;
	to node_39_B;
	configuration house_transformer;
}

object triplex_node {
	name node_41_C;
	nominal_voltage 124.00;
	phases CS;
}

object transformer {
	name house_trans_41_C;
	phases CS;
	from meter_41;
	to node_41_C;
	configuration house_transformer;
}

object triplex_node {
	name node_42_A;
	nominal_voltage 124.00;
	phases AS;
}

object transformer {
	name house_trans_42_A;
	phases AS;
	from meter_42;
	to node_42_A;
	configuration house_transformer;
}

object triplex_node {
	name node_43_B;
	nominal_voltage 124.00;
	phases BS;
}

object transformer {
	name house_trans_43_B;
	phases BS;
	from meter_43;
	to node_43_B;
	configuration house_transformer;
}

object triplex_node {
	name node_45_A;
	nominal_voltage 124.00;
	phases AS;
}

object transformer {
	name house_trans_45_A;
	phases AS;
	from meter_45;
	to node_45_A;
	configuration house_transformer;
}

object triplex_node {
	name node_46_A;
	nominal_voltage 124.00;
	phases AS;
}

object transformer {
	name house_trans_46_A;
	phases AS;
	from meter_46;
	to node_46_A;
	configuration house_transformer;
}

object triplex_node {
	name node_47_A;
	nominal_voltage 124.00;
	phases AS;
}

object transformer {
	name house_trans_47_A;
	phases AS;
	from meter_47;
	to node_47_A;
	configuration house_transformer;
}

object triplex_node {
	name node_47_B;
	nominal_voltage 124.00;
	phases BS;
}

object transformer {
	name house_trans_47_B;
	phases BS;
	from meter_47;
	to node_47_B;
	configuration house_transformer;
}

object triplex_node {
	name node_47_C;
	nominal_voltage 124.00;
	phases CS;
}

object transformer {
	name house_trans_47_C;
	phases CS;
	from meter_47;
	to node_47_C;
	configuration house_transformer;
}

object triplex_node {
	name node_48_A;
	nominal_voltage 124.00;
	phases AS;
}

object transformer {
	name house_trans_48_A;
	phases AS;
	from meter_48;
	to node_48_A;
	configuration house_transformer;
}

object triplex_node {
	name node_48_B;
	nominal_voltage 124.00;
	phases BS;
}

object transformer {
	name house_trans_48_B;
	phases BS;
	from meter_48;
	to node_48_B;
	configuration house_transformer;
}

object triplex_node {
	name node_48_C;
	nominal_voltage 124.00;
	phases CS;
}

object transformer {
	name house_trans_48_C;
	phases CS;
	from meter_48;
	to node_48_C;
	configuration house_transformer;
}

object triplex_node {
	name node_49_A;
	nominal_voltage 124.00;
	phases AS;
}

object transformer {
	name house_trans_49_A;
	phases AS;
	from meter_49;
	to node_49_A;
	configuration house_transformer;
}

object triplex_node {
	name node_49_B;
	nominal_voltage 124.00;
	phases BS;
}

object transformer {
	name house_trans_49_B;
	phases BS;
	from meter_49;
	to node_49_B;
	configuration house_transformer;
}

object triplex_node {
	name node_49_C;
	nominal_voltage 124.00;
	phases CS;
}

object transformer {
	name house_trans_49_C;
	phases CS;
	from meter_49;
	to node_49_C;
	configuration house_transformer;
}

object triplex_node {
	name node_50_C;
	nominal_voltage 124.00;
	phases CS;
}

object transformer {
	name house_trans_50_C;
	phases CS;
	from meter_50;
	to node_50_C;
	configuration house_transformer;
}

object triplex_node {
	name node_51_A;
	nominal_voltage 124.00;
	phases AS;
}

object transformer {
	name house_trans_51_A;
	phases AS;
	from meter_51;
	to node_51_A;
	configuration house_transformer;
}

object triplex_node {
	name node_52_A;
	nominal_voltage 124.00;
	phases AS;
}

object transformer {
	name house_trans_52_A;
	phases AS;
	from meter_52;
	to node_52_A;
	configuration house_transformer;
}

object triplex_node {
	name node_53_A;
	nominal_voltage 124.00;
	phases AS;
}

object transformer {
	name house_trans_53_A;
	phases AS;
	from meter_53;
	to node_53_A;
	configuration house_transformer;
}

object triplex_node {
	name node_55_A;
	nominal_voltage 124.00;
	phases AS;
}

object transformer {
	name house_trans_55_A;
	phases AS;
	from meter_55;
	to node_55_A;
	configuration house_transformer;
}

object triplex_node {
	name node_56_B;
	nominal_voltage 124.00;
	phases BS;
}

object transformer {
	name house_trans_56_B;
	phases BS;
	from meter_56;
	to node_56_B;
	configuration house_transformer;
}

object triplex_node {
	name node_58_B;
	nominal_voltage 124.00;
	phases BS;
}

object transformer {
	name house_trans_58_B;
	phases BS;
	from meter_58;
	to node_58_B;
	configuration house_transformer;
}

object triplex_node {
	name node_59_B;
	nominal_voltage 124.00;
	phases BS;
}

object transformer {
	name house_trans_59_B;
	phases BS;
	from meter_59;
	to node_59_B;
	configuration house_transformer;
}

object triplex_node {
	name node_60_A;
	nominal_voltage 124.00;
	phases AS;
}

object transformer {
	name house_trans_60_A;
	phases AS;
	from meter_60;
	to node_60_A;
	configuration house_transformer;
}

object triplex_node {
	name node_62_C;
	nominal_voltage 124.00;
	phases CS;
}

object transformer {
	name house_trans_62_C;
	phases CS;
	from meter_62;
	to node_62_C;
	configuration house_transformer;
}

object triplex_node {
	name node_63_A;
	nominal_voltage 124.00;
	phases AS;
}

object transformer {
	name house_trans_63_A;
	phases AS;
	from meter_63;
	to node_63_A;
	configuration house_transformer;
}

object triplex_node {
	name node_64_B;
	nominal_voltage 124.00;
	phases BS;
}

object transformer {
	name house_trans_64_B;
	phases BS;
	from meter_64;
	to node_64_B;
	configuration house_transformer;
}

object triplex_node {
	name node_65_A;
	nominal_voltage 124.00;
	phases AS;
}

object transformer {
	name house_trans_65_A;
	phases AS;
	from meter_65;
	to node_65_A;
	configuration house_transformer;
}

object triplex_node {
	name node_65_B;
	nominal_voltage 124.00;
	phases BS;
}

object transformer {
	name house_trans_65_B;
	phases BS;
	from meter_65;
	to node_65_B;
	configuration house_transformer;
}

object triplex_node {
	name node_65_C;
	nominal_voltage 124.00;
	phases CS;
}

object transformer {
	name house_trans_65_C;
	phases CS;
	from meter_65;
	to node_65_C;
	configuration house_transformer;
}

object triplex_node {
	name node_66_C;
	nominal_voltage 124.00;
	phases CS;
}

object transformer {
	name house_trans_66_C;
	phases CS;
	from meter_66;
	to node_66_C;
	configuration house_transformer;
}

object triplex_node {
	name node_68_A;
	nominal_voltage 124.00;
	phases AS;
}

object transformer {
	name house_trans_68_A;
	phases AS;
	from meter_68;
	to node_68_A;
	configuration house_transformer;
}

object triplex_node {
	name node_69_A;
	nominal_voltage 124.00;
	phases AS;
}

object transformer {
	name house_trans_69_A;
	phases AS;
	from meter_69;
	to node_69_A;
	configuration house_transformer;
}

object triplex_node {
	name node_70_A;
	nominal_voltage 124.00;
	phases AS;
}

object transformer {
	name house_trans_70_A;
	phases AS;
	from meter_70;
	to node_70_A;
	configuration house_transformer;
}

object triplex_node {
	name node_71_A;
	nominal_voltage 124.00;
	phases AS;
}

object transformer {
	name house_trans_71_A;
	phases AS;
	from meter_71;
	to node_71_A;
	configuration house_transformer;
}

object triplex_node {
	name node_73_C;
	nominal_voltage 124.00;
	phases CS;
}

object transformer {
	name house_trans_73_C;
	phases CS;
	from meter_73;
	to node_73_C;
	configuration house_transformer;
}

object triplex_node {
	name node_74_C;
	nominal_voltage 124.00;
	phases CS;
}

object transformer {
	name house_trans_74_C;
	phases CS;
	from meter_74;
	to node_74_C;
	configuration house_transformer;
}

object triplex_node {
	name node_75_C;
	nominal_voltage 124.00;
	phases CS;
}

object transformer {
	name house_trans_75_C;
	phases CS;
	from meter_75;
	to node_75_C;
	configuration house_transformer;
}

object triplex_node {
	name node_76_A;
	nominal_voltage 124.00;
	phases AS;
}

object transformer {
	name house_trans_76_A;
	phases AS;
	from meter_76;
	to node_76_A;
	configuration house_transformer;
}

object triplex_node {
	name node_76_B;
	nominal_voltage 124.00;
	phases BS;
}

object transformer {
	name house_trans_76_B;
	phases BS;
	from meter_76;
	to node_76_B;
	configuration house_transformer;
}

object triplex_node {
	name node_76_C;
	nominal_voltage 124.00;
	phases CS;
}

object transformer {
	name house_trans_76_C;
	phases CS;
	from meter_76;
	to node_76_C;
	configuration house_transformer;
}

object triplex_node {
	name node_77_B;
	nominal_voltage 124.00;
	phases BS;
}

object transformer {
	name house_trans_77_B;
	phases BS;
	from meter_77;
	to node_77_B;
	configuration house_transformer;
}

object triplex_node {
	name node_79_A;
	nominal_voltage 124.00;
	phases AS;
}

object transformer {
	name house_trans_79_A;
	phases AS;
	from meter_79;
	to node_79_A;
	configuration house_transformer;
}

object triplex_node {
	name node_80_B;
	nominal_voltage 124.00;
	phases BS;
}

object transformer {
	name house_trans_80_B;
	phases BS;
	from meter_80;
	to node_80_B;
	configuration house_transformer;
}

object triplex_node {
	name node_82_A;
	nominal_voltage 124.00;
	phases AS;
}

object transformer {
	name house_trans_82_A;
	phases AS;
	from meter_82;
	to node_82_A;
	configuration house_transformer;
}

object triplex_node {
	name node_83_C;
	nominal_voltage 124.00;
	phases CS;
}

object transformer {
	name house_trans_83_C;
	phases CS;
	from meter_83;
	to node_83_C;
	configuration house_transformer;
}

object triplex_node {
	name node_84_C;
	nominal_voltage 124.00;
	phases CS;
}

object transformer {
	name house_trans_84_C;
	phases CS;
	from meter_84;
	to node_84_C;
	configuration house_transformer;
}

object triplex_node {
	name node_85_C;
	nominal_voltage 124.00;
	phases CS;
}

object transformer {
	name house_trans_85_C;
	phases CS;
	from meter_85;
	to node_85_C;
	configuration house_transformer;
}

object triplex_node {
	name node_86_B;
	nominal_voltage 124.00;
	phases BS;
}

object transformer {
	name house_trans_86_B;
	phases BS;
	from meter_86;
	to node_86_B;
	configuration house_transformer;
}

object triplex_node {
	name node_87_B;
	nominal_voltage 124.00;
	phases BS;
}

object transformer {
	name house_trans_87_B;
	phases BS;
	from meter_87;
	to node_87_B;
	configuration house_transformer;
}

object triplex_node {
	name node_88_A;
	nominal_voltage 124.00;
	phases AS;
}

object transformer {
	name house_trans_88_A;
	phases AS;
	from meter_88;
	to node_88_A;
	configuration house_transformer;
}

object triplex_node {
	name node_90_B;
	nominal_voltage 124.00;
	phases BS;
}

object transformer {
	name house_trans_90_B;
	phases BS;
	from meter_90;
	to node_90_B;
	configuration house_transformer;
}

object triplex_node {
	name node_92_C;
	nominal_voltage 124.00;
	phases CS;
}

object transformer {
	name house_trans_92_C;
	phases CS;
	from meter_92;
	to node_92_C;
	configuration house_transformer;
}

object triplex_node {
	name node_94_A;
	nominal_voltage 124.00;
	phases AS;
}

object transformer {
	name house_trans_94_A;
	phases AS;
	from meter_94;
	to node_94_A;
	configuration house_transformer;
}

object triplex_node {
	name node_95_B;
	nominal_voltage 124.00;
	phases BS;
}

object transformer {
	name house_trans_95_B;
	phases BS;
	from meter_95;
	to node_95_B;
	configuration house_transformer;
}

object triplex_node {
	name node_96_B;
	nominal_voltage 124.00;
	phases BS;
}

object transformer {
	name house_trans_96_B;
	phases BS;
	from meter_96;
	to node_96_B;
	configuration house_transformer;
}

object triplex_node {
	name node_98_A;
	nominal_voltage 124.00;
	phases AS;
}

object transformer {
	name house_trans_98_A;
	phases AS;
	from meter_98;
	to node_98_A;
	configuration house_transformer;
}

object triplex_node {
	name node_99_B;
	nominal_voltage 124.00;
	phases BS;
}

object transformer {
	name house_trans_99_B;
	phases BS;
	from meter_99;
	to node_99_B;
	configuration house_transformer;
}

object triplex_node {
	name node_100_C;
	nominal_voltage 124.00;
	phases CS;
}

object transformer {
	name house_trans_100_C;
	phases CS;
	from meter_100;
	to node_100_C;
	configuration house_transformer;
}

object triplex_node {
	name node_102_C;
	nominal_voltage 124.00;
	phases CS;
}

object transformer {
	name house_trans_102_C;
	phases CS;
	from meter_102;
	to node_102_C;
	configuration house_transformer;
}

object triplex_node {
	name node_103_C;
	nominal_voltage 124.00;
	phases CS;
}

object transformer {
	name house_trans_103_C;
	phases CS;
	from meter_103;
	to node_103_C;
	configuration house_transformer;
}

object triplex_node {
	name node_104_C;
	nominal_voltage 124.00;
	phases CS;
}

object transformer {
	name house_trans_104_C;
	phases CS;
	from meter_104;
	to node_104_C;
	configuration house_transformer;
}

object triplex_node {
	name node_106_B;
	nominal_voltage 124.00;
	phases BS;
}

object transformer {
	name house_trans_106_B;
	phases BS;
	from meter_106;
	to node_106_B;
	configuration house_transformer;
}

object triplex_node {
	name node_107_B;
	nominal_voltage 124.00;
	phases BS;
}

object transformer {
	name house_trans_107_B;
	phases BS;
	from meter_107;
	to node_107_B;
	configuration house_transformer;
}

object triplex_node {
	name node_109_A;
	nominal_voltage 124.00;
	phases AS;
}

object transformer {
	name house_trans_109_A;
	phases AS;
	from meter_109;
	to node_109_A;
	configuration house_transformer;
}

object triplex_node {
	name node_111_A;
	nominal_voltage 124.00;
	phases AS;
}

object transformer {
	name house_trans_111_A;
	phases AS;
	from meter_111;
	to node_111_A;
	configuration house_transformer;
}

object triplex_node {
	name node_112_A;
	nominal_voltage 124.00;
	phases AS;
}

object transformer {
	name house_trans_112_A;
	phases AS;
	from meter_112;
	to node_112_A;
	configuration house_transformer;
}

object triplex_node {
	name node_113_A;
	nominal_voltage 124.00;
	phases AS;
}

object transformer {
	name house_trans_113_A;
	phases AS;
	from meter_113;
	to node_113_A;
	configuration house_transformer;
}

object triplex_node {
	name node_114_A;
	nominal_voltage 124.00;
	phases AS;
}

object transformer {
	name house_trans_114_A;
	phases AS;
	from meter_114;
	to node_114_A;
	configuration house_transformer;
}

object triplex_meter {
	name meter_GLD_B1_N48_C_0001;
	nominal_voltage 124.00;
	groupid House_meter;
	phases CS;
}

object house {
	name GLD_B1_N48_C_0001;
	number_of_stories 1;
	cooling_setpoint 69;
	heating_setpoint 67.1;
	T_min 61.29999999999998;
	T_max 74.80000000000001;
	k 4.0;
	cooling_system_type ELECTRIC;
	heating_system_type RESISTANCE;
	thermostat_control NONE;
	floor_area 2004;
	window_wall_ratio 0.14;
	airchange_per_hour 1.24;
	parent meter_GLD_B1_N48_C_0001;
	air_temperature 67.91790015972717;
	mass_temperature 68.00620015972717;
}

object ZIPload {
	parent GLD_B1_N48_C_0001;
	name zip_GLD_B1_N48_C_0001;
	power_fraction 0.5;
	impedance_fraction 0.5;
	current_fraction 0.0;
	power_pf 0.9;
	current_pf 0.9;
	impedance_pf 0.9;
	heat_fraction 0.0;
	base_power player_20.value;
}

object triplex_line {
	name house_line_GLD_B1_N48_C_0001;
	from node_48_C;
	to meter_GLD_B1_N48_C_0001;
	phases CS;
	length 30 ft;
	configuration triplex_line_config;
}

object triplex_meter {
	name meter_GLD_B1_N19_A_0002;
	nominal_voltage 124.00;
	groupid House_meter;
	phases AS;
}

object house {
	name GLD_B1_N19_A_0002;
	number_of_stories 1;
	cooling_setpoint 72;
	heating_setpoint 66;
	T_min 60.19999999999999;
	T_max 77.80000000000001;
	k 3.9;
	cooling_system_type ELECTRIC;
	heating_system_type RESISTANCE;
	thermostat_control NONE;
	floor_area 1999;
	window_wall_ratio 0.15;
	airchange_per_hour 0.59;
	parent meter_GLD_B1_N19_A_0002;
	air_temperature 71.95486320310542;
	mass_temperature 71.83546320310542;
}

object ZIPload {
	parent GLD_B1_N19_A_0002;
	name zip_GLD_B1_N19_A_0002;
	power_fraction 0.5;
	impedance_fraction 0.5;
	current_fraction 0.0;
	power_pf 0.9;
	current_pf 0.9;
	impedance_pf 0.9;
	heat_fraction 0.0;
	base_power player_94.value;
}

object triplex_line {
	name house_line_GLD_B1_N19_A_0002;
	from node_19_A;
	to meter_GLD_B1_N19_A_0002;
	phases AS;
	length 30 ft;
	configuration triplex_line_config;
}

object triplex_meter {
	name meter_GLD_B1_N84_C_0003;
	nominal_voltage 124.00;
	groupid House_meter;
	phases CS;
}

object house {
	name GLD_B1_N84_C_0003;
	number_of_stories 1;
	cooling_setpoint 73;
	heating_setpoint 71.1;
	T_min 65.29999999999998;
	T_max 78.80000000000001;
	k 3.4;
	cooling_system_type ELECTRIC;
	heating_system_type GAS;
	thermostat_control NONE;
	floor_area 2016;
	window_wall_ratio 0.15;
	airchange_per_hour 0.46;
	parent meter_GLD_B1_N84_C_0003;
	air_temperature 73.10981783099412;
	mass_temperature 72.92431783099411;
}

object ZIPload {
	parent GLD_B1_N84_C_0003;
	name zip_GLD_B1_N84_C_0003;
	power_fraction 0.5;
	impedance_fraction 0.5;
	current_fraction 0.0;
	power_pf 0.9;
	current_pf 0.9;
	impedance_pf 0.9;
	heat_fraction 0.0;
	base_power player_106.value;
}

object triplex_line {
	name house_line_GLD_B1_N84_C_0003;
	from node_84_C;
	to meter_GLD_B1_N84_C_0003;
	phases CS;
	length 30 ft;
	configuration triplex_line_config;
}

object triplex_meter {
	name meter_GLD_B1_N12_B_0004;
	nominal_voltage 124.00;
	groupid House_meter;
	phases BS;
}

object house {
	name GLD_B1_N12_B_0004;
	number_of_stories 1;
	cooling_setpoint 79;
	heating_setpoint 68;
	T_min 62.19999999999999;
	T_max 84.80000000000001;
	k 2.4;
	cooling_system_type HEAT_PUMP;
	heating_system_type HEAT_PUMP;
	thermostat_control NONE;
	floor_area 1916;
	window_wall_ratio 0.14;
	airchange_per_hour 0.38;
	parent meter_GLD_B1_N12_B_0004;
	air_temperature 79.36841152731503;
	mass_temperature 79.43731152731503;
}

object ZIPload {
	parent GLD_B1_N12_B_0004;
	name zip_GLD_B1_N12_B_0004;
	power_fraction 0.5;
	impedance_fraction 0.5;
	current_fraction 0.0;
	power_pf 0.9;
	current_pf 0.9;
	impedance_pf 0.9;
	heat_fraction 0.0;
	base_power player_26.value;
}

object triplex_line {
	name house_line_GLD_B1_N12_B_0004;
	from node_12_B;
	to meter_GLD_B1_N12_B_0004;
	phases BS;
	length 30 ft;
	configuration triplex_line_config;
}

object triplex_meter {
	name meter_GLD_B1_N87_B_0005;
	nominal_voltage 124.00;
	groupid House_meter;
	phases BS;
}

object house {
	name GLD_B1_N87_B_0005;
	number_of_stories 1;
	cooling_setpoint 77;
	heating_setpoint 75;
	T_min 69.19999999999999;
	T_max 82.80000000000001;
	k 2.5;
	cooling_system_type HEAT_PUMP;
	heating_system_type HEAT_PUMP;
	thermostat_control NONE;
	floor_area 1878;
	window_wall_ratio 0.13;
	airchange_per_hour 0.43;
	parent meter_GLD_B1_N87_B_0005;
	air_temperature 78.51292155038885;
	mass_temperature 78.52002155038886;
}

object ZIPload {
	parent GLD_B1_N87_B_0005;
	name zip_GLD_B1_N87_B_0005;
	power_fraction 0.5;
	impedance_fraction 0.5;
	current_fraction 0.0;
	power_pf 0.9;
	current_pf 0.9;
	impedance_pf 0.9;
	heat_fraction 0.0;
	base_power player_25.value;
}

object triplex_line {
	name house_line_GLD_B1_N87_B_0005;
	from node_87_B;
	to meter_GLD_B1_N87_B_0005;
	phases BS;
	length 30 ft;
	configuration triplex_line_config;
}

object triplex_meter {
	name meter_GLD_B1_N7_A_0006;
	nominal_voltage 124.00;
	groupid House_meter;
	phases AS;
}

object house {
	name GLD_B1_N7_A_0006;
	number_of_stories 1;
	cooling_setpoint 73;
	heating_setpoint 68;
	T_min 62.19999999999999;
	T_max 78.80000000000001;
	k 3.7;
	cooling_system_type ELECTRIC;
	heating_system_type RESISTANCE;
	thermostat_control NONE;
	floor_area 2039;
	window_wall_ratio 0.13;
	airchange_per_hour 0.65;
	parent meter_GLD_B1_N7_A_0006;
	air_temperature 73.98146924191991;
	mass_temperature 73.77486924191992;
}

object ZIPload {
	parent GLD_B1_N7_A_0006;
	name zip_GLD_B1_N7_A_0006;
	power_fraction 0.5;
	impedance_fraction 0.5;
	current_fraction 0.0;
	power_pf 0.9;
	current_pf 0.9;
	impedance_pf 0.9;
	heat_fraction 0.0;
	base_power player_71.value;
}

object triplex_line {
	name house_line_GLD_B1_N7_A_0006;
	from node_7_A;
	to meter_GLD_B1_N7_A_0006;
	phases AS;
	length 30 ft;
	configuration triplex_line_config;
}

object triplex_meter {
	name meter_GLD_B1_N94_A_0007;
	nominal_voltage 124.00;
	groupid House_meter;
	phases AS;
}

object house {
	name GLD_B1_N94_A_0007;
	number_of_stories 1;
	cooling_setpoint 68;
	heating_setpoint 66.1;
	T_min 60.29999999999998;
	T_max 73.80000000000001;
	k 3.0;
	cooling_system_type ELECTRIC;
	heating_system_type GAS;
	thermostat_control NONE;
	floor_area 1987;
	window_wall_ratio 0.16;
	airchange_per_hour 0.65;
	parent meter_GLD_B1_N94_A_0007;
	air_temperature 69.09482810089314;
	mass_temperature 68.62172810089314;
}

object ZIPload {
	parent GLD_B1_N94_A_0007;
	name zip_GLD_B1_N94_A_0007;
	power_fraction 0.5;
	impedance_fraction 0.5;
	current_fraction 0.0;
	power_pf 0.9;
	current_pf 0.9;
	impedance_pf 0.9;
	heat_fraction 0.0;
	base_power player_77.value;
}

object triplex_line {
	name house_line_GLD_B1_N94_A_0007;
	from node_94_A;
	to meter_GLD_B1_N94_A_0007;
	phases AS;
	length 30 ft;
	configuration triplex_line_config;
}

object triplex_meter {
	name meter_GLD_B1_N76_A_0008;
	nominal_voltage 124.00;
	groupid House_meter;
	phases AS;
}

object house {
	name GLD_B1_N76_A_0008;
	number_of_stories 1;
	cooling_setpoint 75;
	heating_setpoint 71;
	T_min 65.19999999999999;
	T_max 80.80000000000001;
	k 3.3;
	cooling_system_type ELECTRIC;
	heating_system_type GAS;
	thermostat_control NONE;
	floor_area 1926;
	window_wall_ratio 0.15;
	airchange_per_hour 0.54;
	parent meter_GLD_B1_N76_A_0008;
	air_temperature 74.61457030220011;
	mass_temperature 74.5129703022001;
}

object ZIPload {
	parent GLD_B1_N76_A_0008;
	name zip_GLD_B1_N76_A_0008;
	power_fraction 0.5;
	impedance_fraction 0.5;
	current_fraction 0.0;
	power_pf 0.9;
	current_pf 0.9;
	impedance_pf 0.9;
	heat_fraction 0.0;
	base_power player_7.value;
}

object triplex_line {
	name house_line_GLD_B1_N76_A_0008;
	from node_76_A;
	to meter_GLD_B1_N76_A_0008;
	phases AS;
	length 30 ft;
	configuration triplex_line_config;
}

object triplex_meter {
	name meter_GLD_B1_N28_A_0009;
	nominal_voltage 124.00;
	groupid House_meter;
	phases AS;
}

object house {
	name GLD_B1_N28_A_0009;
	number_of_stories 2;
	cooling_setpoint 76;
	heating_setpoint 73;
	T_min 67.19999999999999;
	T_max 81.80000000000001;
	k 3.3;
	cooling_system_type ELECTRIC;
	heating_system_type RESISTANCE;
	thermostat_control NONE;
	floor_area 3121;
	window_wall_ratio 0.16;
	airchange_per_hour 0.88;
	parent meter_GLD_B1_N28_A_0009;
	air_temperature 76.22986214309634;
	mass_temperature 76.17996214309635;
}

object ZIPload {
	parent GLD_B1_N28_A_0009;
	name zip_GLD_B1_N28_A_0009;
	power_fraction 0.5;
	impedance_fraction 0.5;
	current_fraction 0.0;
	power_pf 0.9;
	current_pf 0.9;
	impedance_pf 0.9;
	heat_fraction 0.0;
	base_power player_74.value;
}

object triplex_line {
	name house_line_GLD_B1_N28_A_0009;
	from node_28_A;
	to meter_GLD_B1_N28_A_0009;
	phases AS;
	length 30 ft;
	configuration triplex_line_config;
}

object triplex_meter {
	name meter_GLD_B1_N2_B_0010;
	nominal_voltage 124.00;
	groupid House_meter;
	phases BS;
}

object house {
	name GLD_B1_N2_B_0010;
	number_of_stories 1;
	cooling_setpoint 73;
	heating_setpoint 71.1;
	T_min 65.29999999999998;
	T_max 78.80000000000001;
	k 4.0;
	cooling_system_type HEAT_PUMP;
	heating_system_type HEAT_PUMP;
	thermostat_control NONE;
	floor_area 1959;
	window_wall_ratio 0.17;
	airchange_per_hour 0.35;
	parent meter_GLD_B1_N2_B_0010;
	air_temperature 71.77127141155616;
	mass_temperature 72.07807141155615;
}

object ZIPload {
	parent GLD_B1_N2_B_0010;
	name zip_GLD_B1_N2_B_0010;
	power_fraction 0.5;
	impedance_fraction 0.5;
	current_fraction 0.0;
	power_pf 0.9;
	current_pf 0.9;
	impedance_pf 0.9;
	heat_fraction 0.0;
	base_power player_103.value;
}

object triplex_line {
	name house_line_GLD_B1_N2_B_0010;
	from node_2_B;
	to meter_GLD_B1_N2_B_0010;
	phases BS;
	length 30 ft;
	configuration triplex_line_config;
}

object triplex_meter {
	name meter_GLD_B1_N88_A_0011;
	nominal_voltage 124.00;
	groupid House_meter;
	phases AS;
}

object house {
	name GLD_B1_N88_A_0011;
	number_of_stories 1;
	cooling_setpoint 72;
	heating_setpoint 66;
	T_min 60.19999999999999;
	T_max 77.80000000000001;
	k 3.2;
	cooling_system_type ELECTRIC;
	heating_system_type GAS;
	thermostat_control NONE;
	floor_area 1959;
	window_wall_ratio 0.16;
	airchange_per_hour 0.16;
	parent meter_GLD_B1_N88_A_0011;
	air_temperature 72.32253075734612;
	mass_temperature 73.77503075734612;
}

object ZIPload {
	parent GLD_B1_N88_A_0011;
	name zip_GLD_B1_N88_A_0011;
	power_fraction 0.5;
	impedance_fraction 0.5;
	current_fraction 0.0;
	power_pf 0.9;
	current_pf 0.9;
	impedance_pf 0.9;
	heat_fraction 0.0;
	base_power player_17.value;
}

object triplex_line {
	name house_line_GLD_B1_N88_A_0011;
	from node_88_A;
	to meter_GLD_B1_N88_A_0011;
	phases AS;
	length 30 ft;
	configuration triplex_line_config;
}

object triplex_meter {
	name meter_GLD_B1_N83_C_0012;
	nominal_voltage 124.00;
	groupid House_meter;
	phases CS;
}

object house {
	name GLD_B1_N83_C_0012;
	number_of_stories 1;
	cooling_setpoint 76;
	heating_setpoint 69;
	T_min 63.19999999999999;
	T_max 81.80000000000001;
	k 3.2;
	cooling_system_type ELECTRIC;
	heating_system_type GAS;
	thermostat_control NONE;
	floor_area 1986;
	window_wall_ratio 0.16;
	airchange_per_hour 0.22;
	parent meter_GLD_B1_N83_C_0012;
	air_temperature 77.66128765646853;
	mass_temperature 77.61388765646853;
}

object ZIPload {
	parent GLD_B1_N83_C_0012;
	name zip_GLD_B1_N83_C_0012;
	power_fraction 0.5;
	impedance_fraction 0.5;
	current_fraction 0.0;
	power_pf 0.9;
	current_pf 0.9;
	impedance_pf 0.9;
	heat_fraction 0.0;
	base_power player_61.value;
}

object triplex_line {
	name house_line_GLD_B1_N83_C_0012;
	from node_83_C;
	to meter_GLD_B1_N83_C_0012;
	phases CS;
	length 30 ft;
	configuration triplex_line_config;
}

object triplex_meter {
	name meter_GLD_B1_N9_A_0013;
	nominal_voltage 124.00;
	groupid House_meter;
	phases AS;
}

object house {
	name GLD_B1_N9_A_0013;
	number_of_stories 1;
	cooling_setpoint 73;
	heating_setpoint 70;
	T_min 64.19999999999999;
	T_max 78.80000000000001;
	k 3.2;
	cooling_system_type HEAT_PUMP;
	heating_system_type HEAT_PUMP;
	thermostat_control NONE;
	floor_area 1983;
	window_wall_ratio 0.15;
	airchange_per_hour 0.3;
	parent meter_GLD_B1_N9_A_0013;
	air_temperature 72.57348267690368;
	mass_temperature 72.40438267690368;
}

object ZIPload {
	parent GLD_B1_N9_A_0013;
	name zip_GLD_B1_N9_A_0013;
	power_fraction 0.5;
	impedance_fraction 0.5;
	current_fraction 0.0;
	power_pf 0.9;
	current_pf 0.9;
	impedance_pf 0.9;
	heat_fraction 0.0;
	base_power player_77.value;
}

object triplex_line {
	name house_line_GLD_B1_N9_A_0013;
	from node_9_A;
	to meter_GLD_B1_N9_A_0013;
	phases AS;
	length 30 ft;
	configuration triplex_line_config;
}

object triplex_meter {
	name meter_GLD_B1_N38_B_0014;
	nominal_voltage 124.00;
	groupid House_meter;
	phases BS;
}

object house {
	name GLD_B1_N38_B_0014;
	number_of_stories 1;
	cooling_setpoint 74;
	heating_setpoint 68;
	T_min 62.19999999999999;
	T_max 79.80000000000001;
	k 3.1;
	cooling_system_type ELECTRIC;
	heating_system_type RESISTANCE;
	thermostat_control NONE;
	floor_area 1938;
	window_wall_ratio 0.16;
	airchange_per_hour 0.65;
	parent meter_GLD_B1_N38_B_0014;
	air_temperature 75.76499067854482;
	mass_temperature 75.60099067854482;
}

object ZIPload {
	parent GLD_B1_N38_B_0014;
	name zip_GLD_B1_N38_B_0014;
	power_fraction 0.5;
	impedance_fraction 0.5;
	current_fraction 0.0;
	power_pf 0.9;
	current_pf 0.9;
	impedance_pf 0.9;
	heat_fraction 0.0;
	base_power player_45.value;
}

object triplex_line {
	name house_line_GLD_B1_N38_B_0014;
	from node_38_B;
	to meter_GLD_B1_N38_B_0014;
	phases BS;
	length 30 ft;
	configuration triplex_line_config;
}

object triplex_meter {
	name meter_GLD_B1_N62_C_0015;
	nominal_voltage 124.00;
	groupid House_meter;
	phases CS;
}

object house {
	name GLD_B1_N62_C_0015;
	number_of_stories 2;
	cooling_setpoint 73;
	heating_setpoint 71.1;
	T_min 65.29999999999998;
	T_max 78.80000000000001;
	k 2.7;
	cooling_system_type ELECTRIC;
	heating_system_type GAS;
	thermostat_control NONE;
	floor_area 3037;
	window_wall_ratio 0.15;
	airchange_per_hour 0.95;
	parent meter_GLD_B1_N62_C_0015;
	air_temperature 74.08772049569575;
	mass_temperature 73.90682049569575;
}

object ZIPload {
	parent GLD_B1_N62_C_0015;
	name zip_GLD_B1_N62_C_0015;
	power_fraction 0.5;
	impedance_fraction 0.5;
	current_fraction 0.0;
	power_pf 0.9;
	current_pf 0.9;
	impedance_pf 0.9;
	heat_fraction 0.0;
	base_power player_53.value;
}

object triplex_line {
	name house_line_GLD_B1_N62_C_0015;
	from node_62_C;
	to meter_GLD_B1_N62_C_0015;
	phases CS;
	length 30 ft;
	configuration triplex_line_config;
}

object triplex_meter {
	name meter_GLD_B1_N32_C_0016;
	nominal_voltage 124.00;
	groupid House_meter;
	phases CS;
}

object house {
	name GLD_B1_N32_C_0016;
	number_of_stories 2;
	cooling_setpoint 75;
	heating_setpoint 71;
	T_min 65.19999999999999;
	T_max 80.80000000000001;
	k 2.0;
	cooling_system_type ELECTRIC;
	heating_system_type RESISTANCE;
	thermostat_control NONE;
	floor_area 3266;
	window_wall_ratio 0.15;
	airchange_per_hour 0.27;
	parent meter_GLD_B1_N32_C_0016;
	air_temperature 74.74670457894149;
	mass_temperature 74.68720457894149;
}

object ZIPload {
	parent GLD_B1_N32_C_0016;
	name zip_GLD_B1_N32_C_0016;
	power_fraction 0.5;
	impedance_fraction 0.5;
	current_fraction 0.0;
	power_pf 0.9;
	current_pf 0.9;
	impedance_pf 0.9;
	heat_fraction 0.0;
	base_power player_74.value;
}

object triplex_line {
	name house_line_GLD_B1_N32_C_0016;
	from node_32_C;
	to meter_GLD_B1_N32_C_0016;
	phases CS;
	length 30 ft;
	configuration triplex_line_config;
}

object triplex_meter {
	name meter_GLD_B1_N30_A_0017;
	nominal_voltage 124.00;
	groupid House_meter;
	phases AS;
}

object house {
	name GLD_B1_N30_A_0017;
	number_of_stories 2;
	cooling_setpoint 70;
	heating_setpoint 68.1;
	T_min 62.29999999999998;
	T_max 75.80000000000001;
	k 2.7;
	cooling_system_type HEAT_PUMP;
	heating_system_type HEAT_PUMP;
	thermostat_control NONE;
	floor_area 3514;
	window_wall_ratio 0.15;
	airchange_per_hour 0.3;
	parent meter_GLD_B1_N30_A_0017;
	air_temperature 71.39028403239779;
	mass_temperature 71.15268403239779;
}

object ZIPload {
	parent GLD_B1_N30_A_0017;
	name zip_GLD_B1_N30_A_0017;
	power_fraction 0.5;
	impedance_fraction 0.5;
	current_fraction 0.0;
	power_pf 0.9;
	current_pf 0.9;
	impedance_pf 0.9;
	heat_fraction 0.0;
	base_power player_106.value;
}

object triplex_line {
	name house_line_GLD_B1_N30_A_0017;
	from node_30_A;
	to meter_GLD_B1_N30_A_0017;
	phases AS;
	length 30 ft;
	configuration triplex_line_config;
}

object triplex_meter {
	name meter_GLD_B1_N100_C_0018;
	nominal_voltage 124.00;
	groupid House_meter;
	phases CS;
}

object house {
	name GLD_B1_N100_C_0018;
	number_of_stories 1;
	cooling_setpoint 70;
	heating_setpoint 68.1;
	T_min 62.29999999999998;
	T_max 75.80000000000001;
	k 3.4;
	cooling_system_type ELECTRIC;
	heating_system_type RESISTANCE;
	thermostat_control NONE;
	floor_area 1948;
	window_wall_ratio 0.14;
	airchange_per_hour 1.46;
	parent meter_GLD_B1_N100_C_0018;
	air_temperature 69.05723315768702;
	mass_temperature 70.36633315768702;
}

object ZIPload {
	parent GLD_B1_N100_C_0018;
	name zip_GLD_B1_N100_C_0018;
	power_fraction 0.5;
	impedance_fraction 0.5;
	current_fraction 0.0;
	power_pf 0.9;
	current_pf 0.9;
	impedance_pf 0.9;
	heat_fraction 0.0;
	base_power player_47.value;
}

object triplex_line {
	name house_line_GLD_B1_N100_C_0018;
	from node_100_C;
	to meter_GLD_B1_N100_C_0018;
	phases CS;
	length 30 ft;
	configuration triplex_line_config;
}

object triplex_meter {
	name meter_GLD_B1_N17_C_0019;
	nominal_voltage 124.00;
	groupid House_meter;
	phases CS;
}

object house {
	name GLD_B1_N17_C_0019;
	number_of_stories 2;
	cooling_setpoint 75;
	heating_setpoint 73.1;
	T_min 67.29999999999998;
	T_max 80.80000000000001;
	k 3.0;
	cooling_system_type ELECTRIC;
	heating_system_type RESISTANCE;
	thermostat_control NONE;
	floor_area 3082;
	window_wall_ratio 0.14;
	airchange_per_hour 0.68;
	parent meter_GLD_B1_N17_C_0019;
	air_temperature 75.97523075437957;
	mass_temperature 75.88343075437957;
}

object ZIPload {
	parent GLD_B1_N17_C_0019;
	name zip_GLD_B1_N17_C_0019;
	power_fraction 0.5;
	impedance_fraction 0.5;
	current_fraction 0.0;
	power_pf 0.9;
	current_pf 0.9;
	impedance_pf 0.9;
	heat_fraction 0.0;
	base_power player_87.value;
}

object triplex_line {
	name house_line_GLD_B1_N17_C_0019;
	from node_17_C;
	to meter_GLD_B1_N17_C_0019;
	phases CS;
	length 30 ft;
	configuration triplex_line_config;
}

object triplex_meter {
	name meter_GLD_B1_N42_A_0020;
	nominal_voltage 124.00;
	groupid House_meter;
	phases AS;
}

object house {
	name GLD_B1_N42_A_0020;
	number_of_stories 2;
	cooling_setpoint 69;
	heating_setpoint 67.1;
	T_min 61.29999999999998;
	T_max 74.80000000000001;
	k 2.0;
	cooling_system_type ELECTRIC;
	heating_system_type GAS;
	thermostat_control NONE;
	floor_area 3716;
	window_wall_ratio 0.15;
	airchange_per_hour 0.81;
	parent meter_GLD_B1_N42_A_0020;
	air_temperature 70.51707994648588;
	mass_temperature 70.13567994648588;
}

object ZIPload {
	parent GLD_B1_N42_A_0020;
	name zip_GLD_B1_N42_A_0020;
	power_fraction 0.5;
	impedance_fraction 0.5;
	current_fraction 0.0;
	power_pf 0.9;
	current_pf 0.9;
	impedance_pf 0.9;
	heat_fraction 0.0;
	base_power player_38.value;
}

object triplex_line {
	name house_line_GLD_B1_N42_A_0020;
	from node_42_A;
	to meter_GLD_B1_N42_A_0020;
	phases AS;
	length 30 ft;
	configuration triplex_line_config;
}

object triplex_meter {
	name meter_GLD_B1_N43_B_0021;
	nominal_voltage 124.00;
	groupid House_meter;
	phases BS;
}

object house {
	name GLD_B1_N43_B_0021;
	number_of_stories 1;
	cooling_setpoint 70;
	heating_setpoint 68.1;
	T_min 62.29999999999998;
	T_max 75.80000000000001;
	k 3.1;
	cooling_system_type ELECTRIC;
	heating_system_type RESISTANCE;
	thermostat_control NONE;
	floor_area 1939;
	window_wall_ratio 0.16;
	airchange_per_hour 0.97;
	parent meter_GLD_B1_N43_B_0021;
	air_temperature 71.12951568571802;
	mass_temperature 71.22741568571801;
}

object ZIPload {
	parent GLD_B1_N43_B_0021;
	name zip_GLD_B1_N43_B_0021;
	power_fraction 0.5;
	impedance_fraction 0.5;
	current_fraction 0.0;
	power_pf 0.9;
	current_pf 0.9;
	impedance_pf 0.9;
	heat_fraction 0.0;
	base_power player_92.value;
}

object triplex_line {
	name house_line_GLD_B1_N43_B_0021;
	from node_43_B;
	to meter_GLD_B1_N43_B_0021;
	phases BS;
	length 30 ft;
	configuration triplex_line_config;
}

object triplex_meter {
	name meter_GLD_B1_N22_B_0022;
	nominal_voltage 124.00;
	groupid House_meter;
	phases BS;
}

object house {
	name GLD_B1_N22_B_0022;
	number_of_stories 2;
	cooling_setpoint 74;
	heating_setpoint 71;
	T_min 65.19999999999999;
	T_max 79.80000000000001;
	k 3.6;
	cooling_system_type ELECTRIC;
	heating_system_type GAS;
	thermostat_control NONE;
	floor_area 3339;
	window_wall_ratio 0.14;
	airchange_per_hour 1.22;
	parent meter_GLD_B1_N22_B_0022;
	air_temperature 73.51915928553231;
	mass_temperature 73.34145928553231;
}

object ZIPload {
	parent GLD_B1_N22_B_0022;
	name zip_GLD_B1_N22_B_0022;
	power_fraction 0.5;
	impedance_fraction 0.5;
	current_fraction 0.0;
	power_pf 0.9;
	current_pf 0.9;
	impedance_pf 0.9;
	heat_fraction 0.0;
...